14
	Energy:      11.6808970
C         -0.98937        0.79284       -0.00000
C          0.29475        1.34326       -0.00000
C         -1.15807       -0.59566        0.00000
C         -0.03707       -1.44346        0.00000
C          1.24987       -0.88326        0.00000
C          1.41414        0.50591        0.00000
H          2.12516       -1.52195        0.00000
H          2.40832        0.93377        0.00000
H         -1.85552        1.44257       -0.00000
H         -2.15987       -1.00645       -0.00000
C         -0.20240       -2.93499        0.00000
H         -1.27416       -3.22690        0.00000
H          0.27752       -3.36504        0.90436
H          0.27752       -3.36504       -0.90436
