10
	Energy:      10.6239327
C         -6.10712        1.70573        0.06127
C         -4.91894        1.82620       -0.66745
C         -6.36055        0.54462        0.79930
C         -3.98378        0.78522       -0.65819
C         -5.42585       -0.49621        0.80874
C         -4.23755       -0.37611        0.08015
F         -2.83226        0.90179       -1.36433
H         -3.51508       -1.18208        0.08820
H         -6.83033        2.51094        0.05402
H         -7.27981        0.45156        1.36302
