16
	Energy:      48.1946389
C         18.26708        0.00000       17.59744
C!         15.90928        0.00000       16.95984
C!         17.20308        0.00000       16.53344
C!         14.91368        0.00000       15.96424
C!         17.62948        0.00000       15.23964
O         17.91788        0.00000       18.80434
C!         15.34008        0.00000       14.67044
C!         16.63388        0.00000       14.24404
O         19.47398        0.00000       17.24824
C         14.27608        0.00000       13.60644
O         13.06918        0.00000       13.95564
O         14.62528        0.00000       12.39954
H!         18.67542        0.00000       14.95863
H!         15.62826       -0.00000       18.00578
H!         13.86775       -0.00000       16.24526
H!         16.91490        0.00000       13.19811
