41
	Energy:     127.8343945
C         -4.08531        0.79986        0.37849
N         -2.64909        0.62249        0.17104
C         -4.56699        2.02912       -0.38387
C         -4.41390        0.98337        1.87704
H         -4.64183       -0.05190       -0.03945
O         -3.71453        2.07593        2.41738
H         -4.14745        0.10035        2.47545
H         -5.51620        1.10761        2.00093
H         -4.37050        2.80699        2.56148
N         -5.52008        1.90652       -1.35778
O         -4.08615        3.12403       -0.12348
C         -1.86229       -0.45046        0.52475
H         -2.15129        1.41477       -0.26773
O         -0.65513       -0.33291        0.36305
C         -2.32617       -1.81418        1.07746
C         -3.77710       -2.28780        0.80256
N         -1.95778       -1.91803        2.49947
H         -1.71544       -2.54265        0.49603
H         -2.45937       -1.19705        3.06206
H         -0.92883       -1.76796        2.61329
C         -4.04263       -3.75973        1.02067
C         -3.15348       -4.76032        1.37126
N         -5.26610       -4.30395        0.85901
H         -2.09237       -4.67233        1.55931
N         -3.83083       -5.91609        1.43401
C         -5.10490       -5.61738        1.12174
H         -3.44652       -6.85713        1.67154
H         -5.90526       -6.34427        1.08145
H         -4.00647       -2.11790       -0.27053
H         -4.49377       -1.74003        1.43574
H         -5.90465        0.97161       -1.56188
C         -6.04250        3.02949       -2.13400
C         -4.97494        3.69943       -2.97341
C         -6.75877        4.04201       -1.22891
H         -6.80422        2.63144       -2.84061
H         -6.06432        4.52547       -0.51277
H         -7.56251        3.53103       -0.65738
H         -7.22649        4.84007       -1.84416
O         -5.30938        4.72134       -3.78489
O         -3.81834        3.30766       -2.94975
H         -2.18790       -2.85272        2.89820
