8
	Energy:      10.7584444
C         -1.69706        0.97232       -0.45566
C         -0.47032        1.30393        0.12827
C         -2.32975       -0.22872       -0.11941
C          0.12380        0.43444        1.04853
C         -0.50888       -0.76660        1.38478
C         -1.73563       -1.09822        0.80086
C          0.12241       -1.69045        2.36260
C         -2.32830        1.89621       -1.43347
