10
	Energy:      10.5844877
F          7.39930        1.96431        6.20395
C          7.12426        2.66729        5.07859
C          7.12236        4.06499        5.09976
C          6.83997        2.00016        3.88649
N          6.84505        4.76328        3.96493
C          6.55822        2.73461        2.73397
C          6.56531        4.13105        2.79237
H          6.33669        2.22596        1.80525
H          6.34849        4.71173        1.90580
H          7.34112        4.59461        6.01747
