14
	Energy:      35.5730581
C          0.39713        3.64875       -0.28753
O          1.69520        2.84770        1.93820
N         -0.20960        2.86810        0.78480
C          0.51860        2.52180        1.87490
C         -1.59620        2.57130        0.60130
C         -2.23520        1.38330        1.09230
C         -1.51210        0.27770        1.83520
N         -0.56810        0.53040        2.67850
C         -0.10420        1.83610        3.04340
H          0.65280        1.71670        3.84830
H         -0.94050        2.44420        3.45190
H          1.46864        3.88715       -0.12344
H         -0.14429        4.61262       -0.39990
H          0.32572        3.08572       -1.24276
