20
	Energy:     854.3040863
O          4.29430        7.40990       12.26910
Pd         2.82540        8.46230       11.78450
O          0.78260        7.47940       12.30150
O          2.62070       10.15970       12.25210
O          6.70550        9.91940       12.27970
Pd         4.80000       10.45560       11.54470
O          5.52570       12.42660       12.25420
Cl         4.96423        9.29068        9.58775
C          5.59147       11.06084        9.81892
C          7.09255       11.13880        9.75014
C          4.89457       12.14210        9.38948
C          5.61284       13.39093        8.94408
C          7.73101       12.24606        9.32713
C          6.96337       13.43561        8.91878
H          3.81530       12.15398        9.44808
O          7.60542       14.56401        8.52455
H          5.04951       14.27151        8.65828
H          7.68771       10.28561       10.04282
H          8.81590       12.25966        9.29520
H          8.57910       14.60663        8.50469
