63
	Energy:     113.7680782
C         -0.39014        0.91616       -0.05112
C          1.00940        0.84083        0.11744
C         -0.95028        2.17949       -0.31794
C         -0.15708        3.33671       -0.42932
C          1.23121        3.21164       -0.26785
C          1.85261        1.97373        0.01753
C         -1.26566       -0.31921        0.02444
H          1.43097       -0.11111        0.34475
H         -1.99979        2.24075       -0.49289
N         -0.68992        4.63518       -0.75467
H          1.80318        4.11547       -0.37487
C          3.36147        1.86514        0.20260
C         -0.72164       -1.62135       -0.11330
C         -2.66495       -0.21949        0.21790
C          4.00781        0.61183        0.38439
C          4.19198        3.01449        0.20185
C          5.57341        2.91548        0.37147
C          6.17666        1.67597        0.54681
C          5.40153        0.51036        0.55534
C         -3.47099       -1.35650        0.27129
C         -1.53522       -2.77033       -0.06716
C         -2.91427       -2.62303        0.12822
H          0.33196       -1.76861       -0.28435
H         -3.16607        0.72613        0.34760
H         -4.53790       -1.25329        0.42414
C         -0.94891       -4.12498       -0.23197
H         -3.56625       -3.48658        0.16867
H          3.45926       -0.31126        0.39244
C          6.04459       -0.81672        0.74181
H          6.18216        3.81089        0.36776
H          7.25102        1.63090        0.67585
H          3.81122        4.01246        0.07874
O          7.25381       -0.90523        0.88896
O          5.30305       -1.94217        0.75211
O         -1.73601       -5.21842       -0.19584
O          0.25138       -4.26632       -0.40757
C         -2.00123        5.02863       -0.70891
H         -0.00920        5.34729       -1.06213
C         -2.39453        6.41778       -1.21350
H         -2.02502        6.47117       -2.26192
C         -1.70925        7.56655       -0.47198
C         -3.92092        6.56541       -1.27176
O         -2.86857        4.28486       -0.27682
C         -0.98806        7.39756        0.73032
C         -1.79740        8.86056       -1.02480
C         -4.64563        5.70005       -2.11723
C         -4.64085        7.51780       -0.51453
C         -0.38052        8.49371        1.35249
C         -1.18801        9.95030       -0.39892
C         -0.47989        9.76734        0.78890
H         -0.00842       10.61316        1.27250
H         -1.26511       10.93725       -0.83693
H         -2.34104        9.02312       -1.94776
H         -0.89342        6.42878        1.20033
H          0.16852        8.35565        2.27490
C         -6.03425        7.59411       -0.60753
C         -6.03763        5.78058       -2.20376
C         -6.73152        6.72712       -1.45002
H         -7.81006        6.78745       -1.51748
H         -6.57525        8.32597       -0.02165
H         -4.14260        8.20146        0.15800
H         -4.12725        4.95694       -2.71111
H         -6.57824        5.10658       -2.85575
