76
	Energy:     150.8491557
C         -0.37725        2.17278       -0.07772
C         -0.73793        0.80905       -0.02660
C          0.90576        2.56512       -0.43694
H         -1.05963        2.96920        0.16081
C          1.87350        1.62196       -0.75865
H          1.15472        3.61882       -0.46597
C          1.58681        0.23959       -0.73179
H          2.83688        2.01695       -1.02700
C          0.26823       -0.13631       -0.36012
C          2.64713       -0.79329       -1.08798
H          0.02122       -1.16941       -0.33476
C         -2.14309        0.38016        0.36929
C         -3.17181        1.32365        0.58546
C         -2.49227       -0.97820        0.54159
C         -4.46422        0.93537        0.94857
C         -3.78460       -1.36589        0.90662
C         -4.81163       -0.42168        1.12118
C         -6.21584       -0.84341        1.51705
H         -5.17034        1.73525        1.08704
H         -3.01826        2.38283        0.47629
H         -1.78947       -1.78184        0.41028
H         -3.94206       -2.42503        1.01171
C          3.96803       -0.41597       -1.41803
H          4.29170        0.60957       -1.43276
C          4.94508       -1.35971       -1.74622
C          4.66519       -2.74274       -1.76707
H          5.91695       -0.96291       -1.98212
C          3.34633       -3.12222       -1.43779
C          5.72660       -3.76800       -2.12548
C          2.36893       -2.17890       -1.10834
H          1.39980       -2.58330       -0.87681
H          3.02767       -4.14978       -1.42197
C          7.05431       -3.39072       -2.42151
C         -6.55748       -2.19909        1.71252
C         -7.24861        0.09956        1.70918
C          5.43766       -5.14869       -2.18085
H          7.38121       -2.36577       -2.40713
C          8.03108       -4.33419       -2.75160
C          7.74248       -5.71526       -2.80825
H          9.00924       -3.93838       -2.96104
C          6.41406       -6.09221       -2.51231
C          8.80568       -6.73923       -3.16889
H          4.45818       -5.54319       -1.97440
H          6.08573       -7.11647       -2.52309
C         -8.54090       -0.28848        2.07333
H         -5.84641       -2.99765        1.59296
C         -7.84961       -2.58725        2.07749
H         -7.09640        1.15740        1.58522
C         -8.88327       -1.64430        2.26959
H         -9.25038        0.51103        2.19427
C        -10.28899       -2.06397        2.66622
H         -7.99963       -3.64538        2.19907
C        -11.32637       -1.11244        2.83014
C        -10.62572       -3.42499        2.89008
H         -9.89577       -4.20686        2.78789
C        -11.92693       -3.81708        3.25792
C        -12.61642       -1.49896        3.19416
H        -11.17980       -0.05708        2.68390
C        -12.91806       -2.83894        3.40720
H        -13.38988       -0.75042        3.31186
H        -13.92835       -3.10853        3.68908
C        -12.24709       -5.25008        3.48583
C         10.14850       -6.35684       -3.41145
C          8.50228       -8.12178       -3.27921
H         10.48545       -5.33719       -3.35173
C         11.12372       -7.29790       -3.74238
C         10.79850       -8.64548       -3.84387
H         12.14240       -6.97763       -3.92154
C          9.48480       -9.07299       -3.61391
H         11.57682       -9.35260       -4.10277
H          7.50704       -8.49177       -3.11380
C          9.13469      -10.51292       -3.72317
O          9.98659      -11.33841       -4.01390
O          7.87187      -10.92935       -3.50346
O        -13.37571       -5.59065        3.80513
O        -11.29687       -6.19522        3.34377
