37
	Energy:      63.7705963
C         -0.52357        1.18214        0.04996
C          0.88928        1.07031        0.11553
C         -1.06660        2.48448        0.08587
C         -0.24705        3.61062        0.17766
C          1.13606        3.46811        0.23823
C          1.74731        2.19619        0.21131
C         -1.42024       -0.04233       -0.05622
H          1.32370        0.10068        0.09220
H         -2.12553        2.66715        0.03275
O         -0.78207        4.84931        0.20877
H          1.70178        4.38019        0.31752
C          3.25976        2.04786        0.28387
C         -0.89287       -1.34099       -0.28759
C         -2.82793        0.06208        0.07143
C          3.88308        0.78154        0.44617
C          4.11535        3.17412        0.19247
C          5.50254        3.04119        0.25710
C          6.08498        1.78934        0.41650
C          5.28267        0.64577        0.51365
C         -3.65228       -1.05935       -0.02411
C         -1.72435       -2.47381       -0.38638
C         -3.10846       -2.31818       -0.25129
H          0.16200       -1.50806       -0.40810
H         -3.32939        0.99564        0.25726
H         -4.72437       -0.95007        0.08084
C         -1.14927       -3.82159       -0.63291
H         -3.77404       -3.16942       -0.32132
H          3.30856       -0.12212        0.53518
C          5.90303       -0.69335        0.68779
H          6.13182        3.91902        0.18114
H          7.16452        1.71756        0.46400
H          3.74815        4.17658        0.05939
O          7.11716       -0.81183        0.74731
O          5.13525       -1.79698        0.78277
O         -1.95254       -4.89971       -0.72712
O          0.05680       -3.97132       -0.75355
H         -1.73688        5.00319        0.16958
