44
	Energy:      69.3594258
C         -0.89881        2.35767       -0.11417
C         -1.34785        1.04726        0.12484
C          0.47372        2.65067       -0.14461
H         -1.60841        3.15906       -0.27180
C          1.41712        1.64062        0.05540
H          0.81098        3.66519       -0.31579
C          0.98858        0.32422        0.27937
H          2.47794        1.88825        0.04058
C         -0.38945        0.02847        0.30843
C          1.97890       -0.70263        0.52010
H         -0.69411       -0.99245        0.48433
C         -2.76957        0.78306        0.13180
C         -3.94672        0.67663        0.11497
C         -5.25118        0.47831        0.11430
C          2.87935       -1.48675        0.71181
C          3.96975       -2.36548        0.92751
C          4.86787       -3.15040        1.12043
C          5.96086       -4.06622        1.34590
C         -6.33986        0.20782        0.14187
C         -7.58406       -0.09779        0.17221
C         -7.98498       -1.33004        0.64674
C         -8.39836        0.92933       -0.21628
C          5.71894       -5.40906        1.68206
C          7.27496       -3.59079        1.28790
C          8.34268       -4.44873        1.55775
C          6.79092       -6.28091        1.96178
C          8.10595       -5.78479        1.89349
H          8.95208       -6.42641        2.10702
C          6.53915       -7.69703        2.33655
H          7.47025       -2.55315        1.04587
H          9.35654       -4.07399        1.51535
H          4.69846       -5.76860        1.74254
C         -9.36279       -1.51361        0.75394
C         -9.73950        0.75075       -0.07770
C        -10.23265       -0.45633        0.40442
H        -11.29958       -0.55097        0.51118
H        -10.40170        1.56279       -0.31873
H         -7.27355       -2.10457        0.96424
C         -9.92950       -2.78130        1.24583
H         -8.03308        1.89935       -0.57104
O          5.28010       -8.17105        2.41578
O          7.46991       -8.44788        2.58654
O        -11.13941       -2.91472        1.34681
O         -9.12803       -3.81575        1.55777
