35
	Energy:      49.8820938
C         -0.55257        1.33911        0.06690
N          0.80711        1.24441        0.12161
C         -1.13053        2.62201        0.10346
C         -0.30983        3.74481        0.18798
C          1.07552        3.60375        0.23898
C          1.64501        2.31683        0.20731
C         -1.36059        0.08126       -0.03433
H         -2.19550        2.78386        0.06279
H         -0.75119        4.73309        0.21421
H          1.66673        4.50237        0.30780
C          3.12286        2.07569        0.26884
C         -0.69958       -1.16247       -0.14286
C         -2.77236        0.08492       -0.02926
C          3.60929        0.75000        0.30879
C          4.06238        3.12903        0.29232
C          5.43129        2.86295        0.35277
C          5.89393        1.54921        0.39453
C          4.98793        0.47775        0.37414
C         -3.48933       -1.10855       -0.12834
C         -1.41850       -2.36705       -0.24732
C         -2.82127       -2.32651       -0.23768
H          0.38236       -1.19826       -0.15204
H         -3.34509        0.99420        0.05359
H         -4.57178       -1.08851       -0.12119
C         -0.70242       -3.66181       -0.36885
H         -3.40375       -3.23614       -0.31543
H          2.91389       -0.07948        0.29462
C          5.47578       -0.92347        0.42368
H          6.13883        3.68225        0.36830
H          6.96135        1.37312        0.44355
H          3.76637        4.16494        0.26144
O          6.67215       -1.16242        0.48245
O          4.60477       -1.95173        0.40881
O         -1.32430       -4.70876       -0.46165
O          0.64476       -3.69932       -0.38278
