56
	Energy:     106.6677198
C         -0.45625        2.19768       -0.08027
C         -0.80745        0.83199       -0.02374
C          0.82373        2.59681       -0.44315
H         -1.14432        2.98937        0.15908
C          1.79662        1.65829       -0.76389
H          1.06657        3.65185       -0.47465
C          1.51847        0.27423       -0.73105
H          2.75893        2.05743       -1.03034
C          0.20329       -0.10863       -0.35507
C          2.58361       -0.75340       -1.08639
H         -0.04120       -1.14308       -0.33388
C         -2.20865        0.39582        0.37410
C         -3.25364        1.33003        0.54451
C         -2.53691       -0.96043        0.59369
C         -4.54357        0.93435        0.90841
C         -3.82638       -1.35558        0.96076
C         -4.87137       -0.42101        1.12898
C         -6.27410       -0.84888        1.52619
H         -5.26299        1.72764        1.01112
H         -3.11425        2.38660        0.39522
H         -1.81763       -1.75525        0.50078
H         -3.96614       -2.41283        1.10180
C          3.86901       -0.36666       -1.52617
H          4.15861        0.66347       -1.63514
C          4.84993       -1.30605       -1.85526
C          4.61057       -2.69434       -1.76600
H          5.79177       -0.90110       -2.18114
C          3.32662       -3.08252       -1.32552
C          5.67841       -3.71417       -2.12548
C          2.34511       -2.14331       -0.99650
H          1.40653       -2.55408       -0.66951
H          3.03753       -4.11304       -1.21850
C          6.97268       -3.31430       -2.54189
C         -6.58612       -2.20294        1.81729
C         -7.33307        0.08774        1.62323
C          5.42810       -5.11028       -2.06115
H          7.26768       -2.28332       -2.62389
C          7.95195       -4.25143       -2.87199
C          7.67919       -5.61245       -2.80010
H          8.93267       -3.91748       -3.18672
C          6.41489       -6.05762       -2.39424
H          8.45935       -6.31613       -3.06279
H          4.47207       -5.49467       -1.75642
C          6.12095       -7.51214       -2.31737
C         -8.62077       -0.30641        1.98740
H         -5.83766       -2.97266        1.77032
C         -7.88472       -2.60260        2.18614
H         -7.20569        1.13637        1.42063
C         -8.89816       -1.63935        2.26744
H         -9.41142        0.43050        2.05237
H         -9.90717       -1.91514        2.54793
C         -8.17869       -4.02777        2.48675
O         -9.30500       -4.37490        2.80717
O         -7.20682       -4.95839        2.41076
O          6.97660       -8.33432       -2.60650
O          4.90584       -7.94574       -1.92764
