50
	Energy:      75.6639869
C         -0.82924        2.24345       -0.64893
C          0.45549        2.50885       -1.11589
C         -1.15824        0.97492       -0.15560
C         -0.18116       -0.06114       -0.12050
C          1.42544        1.50940       -1.10318
C          1.12378        0.23166       -0.61484
H         -1.57494        3.02930       -0.68405
H          0.69866        3.49286       -1.49603
C         -2.52514        0.74045        0.24727
H          2.41949        1.73662       -1.47051
C          2.17881       -0.75429       -0.59786
C         -3.64728        0.47467        0.59912
C         -4.95877        0.07445        1.03356
C          2.99382       -1.64145       -0.54249
C          3.87349       -2.77305       -0.42064
C         -5.18067       -1.25499        1.41829
C         -6.00994        0.99653        1.06757
C          3.38919       -3.94886        0.16724
C          5.18954       -2.71873       -0.89108
C          4.21032       -5.08176        0.28702
C          6.01577       -3.84079       -0.77576
C          5.53147       -5.01666       -0.19186
C         -7.27948        0.59020        1.48645
C         -6.45579       -1.67307        1.84120
C         -7.50366       -0.73556        1.87149
H         -5.84887        2.02556        0.77007
H         -8.09286        1.30372        1.51218
C         -6.69394       -3.08025        2.24768
H         -8.49659       -1.02557        2.19139
H         -4.35940       -1.96170        1.38515
H          5.57343       -1.81562       -1.34956
H          2.37009       -3.97928        0.52898
C          3.68249       -6.32297        0.90612
H          6.18900       -5.87360       -0.11617
H          7.03320       -3.80154       -1.14234
O         -5.78592       -3.89672        2.22032
O         -7.91676       -3.47639        2.65241
O          2.41416       -6.37372        1.36029
O          4.38840       -7.31393        1.00954
C         -0.51895       -1.42404        0.42765
C         -0.11162       -2.60330       -0.23130
C         -1.24579       -1.55509        1.63067
C         -0.41965       -3.86156        0.29442
C         -1.54566       -2.81513        2.15512
C         -1.13281       -3.96765        1.48789
H         -1.36466       -4.94272        1.89599
H         -2.09502       -2.89629        3.08416
H          0.42948       -2.56157       -1.16619
H         -0.10204       -4.75621       -0.22554
H         -1.56286       -0.68390        2.18754
