45
	Energy:      87.7190034
C         -0.46992        1.00147        0.03782
C          0.93748        0.89459        0.13856
C         -1.01775        2.29791       -0.03625
C         -0.21762        3.45220       -0.03635
C          1.17627        3.29289        0.05814
C          1.79121        2.02493        0.15540
C         -1.36619       -0.22559       -0.02248
H          1.36443       -0.07793        0.20750
H         -2.07433        2.42246       -0.14798
C         -0.83862        4.82209       -0.15710
H          1.76993        4.17943        0.07998
C          3.30779        1.88986        0.26615
C         -0.83988       -1.52229       -0.26024
C         -2.77195       -0.12297        0.13277
C          3.94027        0.62955        0.44800
C          4.16149        3.02182        0.18826
C          5.54718        2.90028        0.28365
C          6.13564        1.65520        0.45947
C          5.34060        0.50610        0.54409
C         -3.59630       -1.24479        0.05080
C         -1.67240       -2.65578       -0.34791
C         -3.05499       -2.50188       -0.19001
H          0.21451       -1.68062       -0.40569
H         -3.27214        0.80989        0.32879
H         -4.66681       -1.13641        0.17296
C         -1.10309       -4.00158       -0.61440
H         -3.72159       -3.35275       -0.25413
H          3.37426       -0.28015        0.52314
C          5.97178       -0.82599        0.73221
H          6.17091        3.78315        0.21821
H          7.21470        1.59355        0.52874
H          3.80287        4.02482        0.04684
O          7.18606       -0.93158        0.81187
O          5.21433       -1.93742        0.81590
O         -1.90903       -5.07720       -0.71093
O          0.10135       -4.15112       -0.75421
C         -2.18844        5.05346        0.19416
C         -0.09595        5.92425       -0.63930
C         -2.74193        6.32929        0.06559
N         -1.99235        7.35571       -0.40792
C         -0.69491        7.17956       -0.76151
H          0.93325        5.83545       -0.95221
H         -0.12561        8.01548       -1.14579
H         -2.82432        4.27476        0.58752
H         -3.77239        6.50324        0.34555
