12
	Energy:      36.7846024
C         -1.61334        1.14563       -0.44963
C         -0.37707        1.42253        0.13347
C         -2.26603       -0.05148       -0.12311
C          0.19918        0.52564        1.02388
C         -0.43126       -0.68956        1.36821
C         -1.70660       -0.99393        0.77877
H          1.16310        0.79192        1.43981
H          0.15141        2.33947       -0.09722
H         -3.23266       -0.20946       -0.56620
N         -2.38443       -2.22675        1.12706
O         -3.48288       -2.44480        0.59700
O         -1.82393       -2.98372        1.93097
