30
	Energy:      74.3047716
C         -3.70223        3.28051       -0.40582
C         -2.34745        3.48370       -0.16354
C         -4.33638        2.15488        0.09921
C         -3.61551        1.21575        0.83249
C         -1.59618        2.57134        0.60130
C         -2.23518        1.38325        1.09227
H         -4.14563        0.35014        1.20681
C         -1.51210        0.27771        1.83515
H         -4.26288        4.00295       -0.98506
H         -1.87394        4.37234       -0.56284
N         -0.20958        2.86806        0.78480
C          0.51857        2.52182        1.87494
N         -0.56810        0.53036        2.67845
C         -1.87623       -1.17276        1.64113
C         -0.10424        1.83609        3.04345
C         -2.58217       -1.62501        0.50259
C         -1.46789       -2.13008        2.59694
C         -1.78046       -3.48243        2.43220
C         -2.88760       -2.98034        0.34585
C         -2.49179       -3.90633        1.31043
H         -2.72983       -4.95470        1.18455
H         -1.46808       -4.20331        3.17683
H         -2.88295       -0.94425       -0.27958
H         -3.42802       -3.31354       -0.53088
H         -5.39192        2.00158       -0.08537
H         -0.91454       -1.83116        3.47815
H         -0.94054        2.44419        3.45192
H          0.65277        1.71667        3.84829
H          0.24810        3.47334        0.08441
O          1.69517        2.84773        1.93824
