9
	Energy:     323.0797693
O          4.29430        7.40990       12.26910
Pd         2.82540        8.46230       11.78450
O          0.78260        7.47940       12.30150
O          2.62070       10.15970       12.25210
O          6.70550        9.91940       12.27970
Pd         4.80000       10.45560       11.54470
O          5.52570       12.42660       12.25420
H          2.95153        7.39089       10.48126
H          1.98326        9.10218       10.46404
