14
	Energy:      21.4796153
C         -3.47094        1.78472        0.07810
C         -2.45063        1.26085       -0.72448
C         -3.88751        1.07994        1.23225
C         -1.84624        0.04630       -0.38640
C         -2.25795       -0.65016        0.75419
C         -3.27617       -0.13539        1.56234
C         -4.90839        1.60287        2.03637
C         -4.08164        3.00099       -0.25365
C         -5.10008        3.51498        0.55547
C         -5.51211        2.81838        1.69660
F         -5.23576        1.07229        2.92242
H         -6.30077        3.22169        2.31841
H         -3.77183        3.55024       -1.13458
H         -5.57075        4.45490        0.29752
