18
	Energy:      21.7312854
C         -3.45171        1.75145        0.02521
C         -2.31414        1.30799       -0.66696
C         -3.88693        1.05414        1.17887
C         -1.61520        0.18323       -0.21844
C         -2.04471       -0.50493        0.92009
C         -3.17638       -0.07348        1.61863
C         -5.02450        1.49761        1.87104
H         -3.49695       -0.61726        2.49930
C         -4.16226        2.87908       -0.41455
H         -1.96897        1.83085       -1.55099
C         -5.29393        3.31053        0.28399
C         -5.72344        2.62237        1.42252
H         -5.36968        0.97475        2.75507
H         -6.60032        2.96161        1.95871
H         -3.84170        3.42286       -1.29522
H         -5.83953        4.18053       -0.05794
H         -0.73833       -0.15602       -0.75463
H         -1.49911       -1.37494        1.26202
