6
	Energy:      10.5447318
C         -5.94649        2.83003       -0.00000
C         -4.71715        3.49789       -0.00000
C         -3.52409        2.76718       -0.00000
C         -3.56037        1.36861       -0.00000
C         -4.78971        0.70074       -0.00000
C         -5.98277        1.43145       -0.00000
