23
	Energy:      42.4841736
C         -1.61334        1.14563       -0.44963
C         -0.37707        1.42253        0.13347
C         -2.26603       -0.05148       -0.12311
C          0.19918        0.52564        1.02388
C         -0.43126       -0.68956        1.36821
C         -1.70660       -0.99393        0.77877
H          1.16310        0.79192        1.43981
H          0.15141        2.33947       -0.09722
H         -3.23266       -0.20946       -0.56620
N         -2.42792       -2.19419        1.12680
C          0.32351       -1.58684        2.31234
O         -0.06714       -2.84350        2.58686
C         -2.23290        2.11208       -1.39368
O         -3.42921        1.84937       -1.95609
O         -1.66585        3.15709       -1.67332
O          1.36694       -1.19863        2.81608
C         -3.41161       -2.80593        0.39580
H         -2.20212       -2.64808        2.01536
O         -3.73882       -2.40329       -0.70855
C         -4.09459       -4.03731        0.92240
H         -3.71293       -4.32597        1.92417
H         -3.92396       -4.88375        0.22445
H         -5.18570       -3.84921        1.00402
