18
	Energy:      26.0203515
C         -1.61131        1.06971       -0.46077
C         -0.38569        1.37267        0.14017
C         -2.24804       -0.13158       -0.12697
C          0.19051        0.49316        1.05511
C         -0.43315       -0.72460        1.40752
C         -1.68811       -1.03671        0.79336
H          1.14079        0.77799        1.49014
H          0.13315        2.29375       -0.09607
H         -3.19790       -0.37360       -0.58822
N         -2.42687       -2.22596        1.05408
C          0.28099       -1.59243        2.40395
O         -0.20943       -2.77214        2.81853
C         -2.23180        2.00101       -1.43624
O         -3.41369        1.70036       -2.01048
O         -1.68080        3.05009       -1.73101
O          1.35156       -1.23001        2.86836
H         -3.32579       -2.38793        0.57606
H         -2.13101       -2.96120        1.69940
