30
	Energy:      58.8414643
C         -1.16930        1.59865       -0.64443
C         -0.00024        1.96837        0.01883
C         -1.75198        0.35556       -0.35494
C          0.58054        1.11852        0.95184
C          0.01625       -0.13481        1.26607
C         -1.19133       -0.53620        0.59641
H          1.48504        1.46171        1.43812
H          0.47429        2.92066       -0.18352
H         -2.63194        0.09267       -0.91524
N         -1.79283       -1.82634        0.84024
C          0.72876       -0.93379        2.32123
O          0.26883       -1.96516        2.77783
C         -1.77466        2.51045       -1.64979
O         -2.79683        2.19611       -2.23969
O         -1.20338        3.69991       -1.92434
O          1.89245       -0.48488        2.83407
C         -3.10806       -2.16798        0.63785
H         -1.17788       -2.55413        1.19600
O         -3.91484       -1.32108        0.28585
C         -3.62666       -3.56001        0.88517
C         -5.00328       -3.81981        0.69651
C         -2.80294       -4.63527        1.29742
C         -3.34243       -5.90815        1.51058
C         -5.53315       -5.09478        0.91206
C         -4.70384       -6.13791        1.31899
H         -1.74356       -4.53061        1.46188
H         -2.70002       -6.72061        1.82562
H         -5.67986       -3.03567        0.38071
H         -5.11589       -7.12489        1.48529
H         -6.59030       -5.27318        0.76258
