29
	Energy:      44.0518975
C         -1.47973        1.25813       -0.47351
C         -0.26630        1.56388        0.14232
C         -2.10465        0.03901       -0.17597
C          0.31440        0.67376        1.03681
C         -0.28853       -0.56298        1.35251
C         -1.53952       -0.89725        0.72868
H          1.25978        0.96292        1.47918
H          0.24040        2.49841       -0.06546
H         -3.05579       -0.14170       -0.64345
N         -2.23450       -2.12101        1.04630
C          0.46808       -1.44922        2.30526
O          0.10601       -2.71920        2.55686
C         -2.10505        2.21704       -1.42141
O         -3.27961        1.92616       -2.01498
O         -1.56261        3.28134       -1.67590
O          1.48758       -1.03769        2.83862
C         -3.17947       -2.75298        0.28185
H         -2.02151       -2.57417        1.93842
O         -3.47927       -2.34941       -0.83075
C         -3.84630       -4.01212        0.78325
H         -3.44770       -4.29601        1.78148
H         -3.62344       -4.83985        0.07522
C         -5.36276       -3.81606        0.89516
H         -5.57792       -2.98862        1.60641
C         -6.04877       -5.08513        1.39229
H         -5.78361       -3.55015       -0.09920
H         -5.66519       -5.36386        2.39687
H         -5.86750       -5.92345        0.68636
H         -7.14317       -4.91205        1.46536
