23
	Energy:      41.9371830
C         -1.62770        1.13808       -0.45138
C         -0.38730        1.41561        0.12019
C         -2.27840       -0.05934       -0.11758
C          0.19616        0.52086        1.00801
C         -0.43154       -0.69178        1.36033
C         -1.71184       -1.00077        0.78131
H          1.16264        0.78920        1.41578
H          0.13959        2.33178       -0.11646
H         -3.24751       -0.21644       -0.55491
N         -2.42577       -2.20610        1.13306
C          0.33317       -1.57787        2.30397
O         -0.03651       -2.70374        2.58451
C         -2.24749        2.10835       -1.39128
O         -3.33547        1.87809       -1.89614
O         -1.61569        3.25795       -1.70086
O          1.49910       -1.15188        2.83122
C         -3.42506       -2.81305        0.41859
H         -2.17862       -2.67339        2.00906
O         -3.77973       -2.39892       -0.67305
C         -4.09201       -4.05359        0.94907
H         -3.68214       -4.34720        1.93812
F         -3.89498       -5.09854        0.06525
F         -5.44848       -3.82470        1.08781
