23
	Energy:      41.9310943
C         -1.61466        1.14615       -0.45150
C         -0.37557        1.42732        0.12125
C         -2.26472       -0.05058       -0.11406
C          0.20713        0.53686        1.01388
C         -0.42002       -0.67498        1.36987
C         -1.69871       -0.98765        0.78957
H          1.17255        0.80779        1.42243
H          0.15076        2.34311       -0.11814
H         -3.23296       -0.21061       -0.55232
N         -2.41185       -2.19222        1.14484
C          0.34357       -1.55674        2.31843
O         -0.02577       -2.68188        2.60248
C         -2.23375        2.11187       -1.39652
O         -3.32054        1.87833       -1.90246
O         -1.60264        3.26088       -1.70966
O          1.50811       -1.12772        2.84633
C         -3.40624       -2.80512        0.42862
H         -2.16770       -2.65381        2.02473
O         -3.75436       -2.39590       -0.66764
C         -4.07258       -4.04583        0.96740
H         -3.66430       -4.32797        1.96041
Cl        -3.80921       -5.41281       -0.14456
Cl        -5.82210       -3.76590        1.15124
