23
	Energy:      41.8293570
C         -1.61277        1.14994       -0.45097
C         -0.37133        1.43098        0.11667
C         -2.26241       -0.04591       -0.10938
C          0.21418        0.54137        1.00826
C         -0.41233       -0.66956        1.36831
C         -1.69340       -0.98233        0.79322
H          1.18134        0.81222        1.41267
H          0.15483        2.34599       -0.12606
H         -3.23233       -0.20595       -0.54394
N         -2.40528       -2.18660        1.15204
C          0.35463       -1.55044        2.31503
O         -0.01406       -2.67496        2.60231
C         -2.23456        2.11482       -1.39506
O         -3.32355        1.88163       -1.89636
O         -1.60335        3.26253       -1.71265
O          1.52143       -1.12125        2.83769
C         -3.40237       -2.80014        0.44030
H         -2.15687       -2.64848        2.03050
O         -3.75662       -2.39076       -0.65378
C         -4.06388       -4.04217        0.98069
H         -3.65073       -4.32556        1.97135
Br        -3.77989       -5.52894       -0.22922
Br        -5.96624       -3.74384        1.19299
