16
	Energy:      17.6046685
C         -1.64393        1.02494       -0.45405
C         -0.41350        1.37023        0.12379
C         -2.24800       -0.19181       -0.08966
C          0.20263        0.52244        1.04478
C         -0.39488       -0.69453        1.41352
C         -1.63266       -1.04529        0.83435
H          1.15181        0.82424        1.46861
H          0.07788        2.29937       -0.13510
H         -3.19844       -0.48447       -0.51995
F         -2.25187       -2.20997        1.15677
C          0.28960       -1.57450        2.39840
O         -0.20685       -2.63889        2.73773
C         -2.28736        1.93652       -1.43207
O         -3.35802        1.64696       -1.94161
O         -1.69477        3.09942       -1.77052
O          1.47341       -1.20514        2.93135
