20
	Energy:      40.9399417
C         -1.63502        1.10777       -0.44602
C         -0.40119        1.38840        0.13977
C         -2.28525       -0.09087       -0.12026
C          0.17520        0.49374        1.03200
C         -0.45245       -0.72317        1.37631
C         -1.72628       -1.03162        0.78406
H          1.13722        0.76381        1.44990
H          0.12543        2.30656       -0.09032
H         -3.24850       -0.25113       -0.56834
N         -2.44435       -2.23529        1.12831
C          0.30398       -1.61444        2.32548
O         -0.08553       -2.86872        2.61079
C         -2.25436        2.07173       -1.39291
O         -3.44845        1.80555       -1.95839
O         -1.68914        3.11787       -1.67203
O          1.34695       -1.22170        2.82673
C         -3.45020       -2.83130        0.42469
H         -2.20849       -2.72314        1.99559
O         -3.82761       -2.42618       -0.66138
H         -3.91061       -3.72984        0.82480
