35
	Energy:      45.5053222
C         -1.41401        1.32641       -0.48492
C         -0.20395        1.63574        0.13584
C         -2.03513        0.10407       -0.19221
C          0.37725        0.74606        1.03040
C         -0.22175       -0.49375        1.34126
C         -1.46926       -0.83164        0.71248
H          1.32001        1.03795        1.47656
H          0.29981        2.57269       -0.06819
H         -2.98387       -0.07996       -0.66342
N         -2.15967       -2.05921        1.02492
C          0.53542       -1.37932        2.29423
O          0.17823       -2.65166        2.54088
C         -2.03956        2.28491       -1.43307
O         -3.21074        1.99072       -2.03163
O         -1.50031        3.35185       -1.68332
O          1.55132       -0.96487        2.83216
C         -3.09740       -2.69524        0.25499
H         -1.94775       -2.51310        1.91690
O         -3.39513       -2.29079       -0.85785
C         -3.75660       -3.96097        0.75039
H         -3.36034       -4.24316        1.74998
H         -3.52247       -4.78522        0.04204
C         -5.27579       -3.78038        0.85493
H         -5.49590       -2.95158        1.56395
C         -5.95043       -5.06478        1.35129
H         -5.68711       -3.51527       -0.14426
H         -5.54234       -5.33117        2.35139
H         -5.72917       -5.89301        0.64223
C         -7.46880       -4.88211        1.45772
H         -7.69717       -4.05755        2.16789
C         -8.14401       -6.15819        1.95187
H         -7.88457       -4.61949        0.46045
H         -7.76238       -6.43204        2.95858
H         -7.95011       -6.99524        1.24771
H         -9.24059       -5.99707        2.01917
