53
	Energy:      49.9077319
C         -1.33180        1.39366       -0.49875
C         -0.12733        1.71299        0.12783
C         -1.94174        0.16420       -0.21259
C          0.45926        0.82612        1.02170
C         -0.12857       -0.42064        1.32603
C         -1.37009       -0.76882        0.69123
H          1.39725        1.12590        1.47266
H          0.36772        2.65568       -0.07100
H         -2.88684       -0.02762       -0.68800
N         -2.05003       -2.00370        0.99758
C          0.63332       -1.30186        2.27920
O          0.28768       -2.57854        2.51989
C         -1.96341        2.34913       -1.44596
O         -3.12928        2.04522       -2.05003
O         -1.43410        3.42239       -1.69033
O          1.64277       -0.87921        2.82286
C         -2.97932       -2.64588        0.22258
H         -1.83799       -2.45743        1.88969
O         -3.27572       -2.24172       -0.89074
C         -3.63197       -3.91660        0.71379
H         -3.23723       -4.19756        1.71433
H         -3.39136       -4.73885        0.00530
C         -5.15213       -3.74303        0.81441
H         -5.37685       -2.91479        1.52267
C         -5.82374       -5.02912        1.31045
H         -5.56226       -3.47967       -0.18572
H         -5.41600       -5.29352        2.31118
H         -5.59978       -5.85740        0.60237
C         -7.34273       -4.84864        1.41571
H         -7.56457       -4.01869        2.12260
C         -8.01777       -6.13116        1.91596
H         -7.75130       -4.58504        0.41508
H         -7.60870       -6.39452        2.91642
H         -7.79802       -6.96187        1.20939
C         -9.53604       -5.94568        2.02361
H         -9.75427       -5.11376        2.72927
C        -10.21379       -7.22543        2.52728
H         -9.94546       -5.68283        1.02314
H         -9.80398       -7.48806        3.52764
H         -9.99699       -8.05790        1.82188
C        -11.73156       -7.03649        2.63653
H        -11.94746       -6.20326        3.34139
C        -12.41099       -8.31449        3.14228
H        -12.14159       -6.77415        1.63617
H        -12.00112       -8.57676        4.14274
H        -12.19609       -9.14814        2.43764
C        -13.92810       -8.12322        3.25195
H        -14.15013       -7.29317        3.95773
C        -14.60864       -9.39258        3.75585
H        -14.34534       -7.86445        2.25429
H        -14.22556       -9.66225        4.76313
H        -14.42125      -10.23494        3.05629
H        -15.70414       -9.22511        3.82530
