32
	Energy:      44.7785874
C         -1.44010        1.30944       -0.47740
C         -0.23247        1.62379        0.14562
C         -2.05480        0.08299       -0.18858
C          0.35258        0.73492        1.03854
C         -0.24007       -0.50889        1.34552
C         -1.48493       -0.85184        0.71443
H          1.29314        1.03079        1.48674
H          0.26622        2.56410       -0.05525
H         -3.00209       -0.10480       -0.66118
N         -2.17003       -2.08294        1.02422
C          0.52032       -1.39281        2.29739
O          0.16958       -2.66775        2.53995
C         -2.07017        2.26700       -1.42350
O         -3.23902        1.96776       -2.02412
O         -1.53695        3.33783       -1.66996
O          1.53305       -0.97428        2.83812
C         -3.10577       -2.72090        0.25353
H         -1.95734       -2.53666        1.91616
O         -3.40408       -2.31668       -0.85926
C         -3.76412       -3.98674        0.74952
H         -3.36683       -4.26826        1.74883
H         -3.53160       -4.81186        0.04156
C         -5.28271       -3.80344        0.85668
H         -5.49940       -2.97198        1.56369
C         -5.95832       -5.08413        1.35981
H         -5.69622       -3.54071       -0.14226
H         -5.55412       -5.35176        2.36052
H         -5.74927       -5.91869        0.65550
C         -7.46902       -4.90096        1.47336
H         -7.70613       -4.08522        2.18925
H         -7.93167       -5.84131        1.84022
H         -7.90383       -4.65383        0.48140
