32
	Energy:      51.6183386
C         -1.59456        1.19950       -0.46474
C         -0.34934        1.48056        0.09501
C         -2.24173        0.00334       -0.11963
C          0.24251        0.59035        0.98203
C         -0.38125       -0.62108        1.34459
C         -1.66586       -0.93357        0.77801
H          1.21235        0.86063        1.38045
H          0.17477        2.39605       -0.15028
H         -3.21639       -0.15625       -0.54511
N         -2.37622       -2.13627        1.14544
C          0.39156       -1.50512        2.28344
O          0.02833       -2.63380        2.56231
C         -2.22324        2.16511       -1.40343
O         -3.31507        1.93146       -1.89831
O         -1.59513        3.31388       -1.72344
O          1.55880       -1.07547        2.80465
C         -3.35686       -2.76665        0.41608
H         -2.12810       -2.55536        2.03999
O         -3.66080       -2.35723       -0.69442
C         -4.08784       -4.02696        0.91526
C         -3.63442       -4.50205        2.31477
C         -3.83735       -5.17385       -0.08514
C         -5.59875       -3.72496        0.97763
H         -4.19332       -4.90167       -1.10237
H         -4.37415       -6.09581        0.22750
H         -2.75175       -5.40490       -0.14649
H         -2.55517       -4.76821        2.31469
H         -4.19959       -5.40856        2.62280
H         -3.81871       -3.71687        3.07972
H         -5.98721       -3.42309       -0.01911
H         -5.80005       -2.89916        1.69417
H         -6.16813       -4.62085        1.30801
