23
	Energy:      46.1024256
C         -1.61506        1.16084       -0.45399
C         -0.37195        1.43638        0.11329
C         -2.26744       -0.03453       -0.11622
C          0.21244        0.54162        1.00084
C         -0.41718       -0.66884        1.35651
C         -1.69932       -0.97551        0.78180
H          1.18091        0.80763        1.40539
H          0.15620        2.35103       -0.12639
H         -3.24014       -0.19106       -0.54752
N         -2.41583       -2.17694        1.14027
C          0.34695       -1.55812        2.29722
O         -0.02360       -2.68514        2.57301
C         -2.23612        2.13119       -1.39280
O         -3.32627        1.90243       -1.89366
O         -1.60309        3.27914       -1.70595
O          1.51395       -1.13518        2.82444
C         -3.39316       -2.79981        0.40364
H         -2.17716       -2.60780        2.03280
O         -3.69441       -2.39256       -0.70762
C         -4.11603       -4.04519        0.89723
Cl        -3.63567       -4.62027        2.52182
Cl        -3.82681       -5.38015       -0.24766
Cl        -5.86679       -3.71654        0.94818
