16
	Energy:      16.4534606
C         -1.64651        1.02562       -0.45612
C         -0.41424        1.33956        0.14230
C         -2.27872       -0.18232       -0.11530
C          0.17288        0.46555        1.06085
C         -0.45875       -0.74264        1.40221
C         -1.69096       -1.05729        0.80426
H          1.12284        0.73726        1.50380
H          0.09832        2.26232       -0.09902
H         -3.22884       -0.45343       -0.55872
H         -2.20303       -1.98040        1.04612
C          0.16402       -1.67130        2.37751
O         -0.44391       -2.82906        2.70292
C         -2.27028        1.95346       -1.43157
O         -3.45189        1.65020       -2.00401
O         -1.72092        3.00332       -1.72787
O          1.23495       -1.39830        2.89748
