16
	Energy:      42.3690082
C         -1.65953        1.02985       -0.46712
C         -0.41352        1.36866        0.12475
C         -2.26146       -0.20489       -0.09023
C          0.20901        0.51230        1.05516
C         -0.38631       -0.71946        1.43447
C         -1.63635       -1.06471        0.84399
Cl         1.76435        1.05007        1.72289
Cl         0.43318        2.87997       -0.26584
Cl        -3.81866       -0.72652       -0.76914
Cl        -2.46881       -2.58179        1.24731
C          0.29287       -1.63201        2.43609
O         -0.20522       -2.69036        2.77063
C         -2.31809        1.95954       -1.46609
O         -3.38662        1.68225       -1.98186
O         -1.75412        3.12720       -1.82589
O          1.47433       -1.31061        2.99721
