16
	Energy:      21.8155852
C         -1.65584        1.01343       -0.45458
C         -0.42118        1.35650        0.12735
C         -2.25761       -0.20944       -0.08494
C          0.19482        0.50973        1.04762
C         -0.39815       -0.70957        1.42073
C         -1.63695       -1.06112        0.84138
F          1.38387        0.89923        1.57148
F          0.20674        2.51749       -0.18719
F         -3.44898       -0.58823       -0.61691
F         -2.25232       -2.22750        1.16732
C          0.28261       -1.59710        2.40788
O         -0.21513       -2.65848        2.74452
C         -2.29964        1.93221       -1.43731
O         -3.37053        1.64693       -1.94965
O         -1.71221        3.09592       -1.77957
O          1.46557       -1.24050        2.94819
